Circuit: * Z:\home\martin\Documents\bms\ltspice\bms.asc

Limiting rise time of source vtriggersec to 1e-007
Limiting fall time of source vtriggersec to 1e-007
Limiting rise time of source vtriggerpri to 3e-007
Limiting fall time of source vtriggerpri to 3e-007
Early termination of direct N-R iteration.
Direct Newton iteration failed to find .op point.  (Use ".option noopiter" to skip.)
Starting Gmin stepping
Gmin = 10
Gmin = 1.07374
Gmin = 0.115292
Gmin = 0.0123794
vernier = 0.5
Gmin = 0.00207692
vernier = 0.25
vernier = 0.125
vernier = 0.0625
vernier = 0.03125
Gmin = 0.00179021
vernier = 0.015625
vernier = 0.0078125
vernier = 0.00390625
vernier = 0.00195313
Gmin = 0.00176942
vernier = 0.000976563
vernier = 0.000488281
Gmin = 0
Gmin stepping succeeded in finding the operating point.


Date: Mon Oct 13 10:18:22 2014
Total elapsed time: 5.490 seconds.

tnom = 27
temp = 27
method = modified trap
totiter = 241520
traniter = 239751
tranpoints = 66399
accept = 48990
rejected = 17409
matrix size = 62
fillins = 204
solver = Normal
Matrix Compiler1: 20.6 KB object code size  5.4/2.5/[1.9]
Matrix Compiler2: 8.69 KB object code size  2.4/3.0/[1.7]


