Circuit: * Z:\home\martin\Documents\ltspice\bms\bms_single.asc

Limiting rise time of source v12 to 1e-007
Limiting fall time of source v12 to 1e-007
Limiting rise time of source v11 to 1e-007
Limiting fall time of source v11 to 1e-007
Direct Newton iteration for .op point succeeded.

Date: Tue Sep 30 14:34:46 2014
Total elapsed time: 2.604 seconds.

tnom = 27
temp = 27
method = modified trap
totiter = 331517
traniter = 331512
tranpoints = 88444
accept = 64658
rejected = 23786
matrix size = 30
fillins = 6
solver = Normal
Matrix Compiler1: 1.84 KB object code size  1.3/0.7/[0.6]
Matrix Compiler2: off  [0.6]/0.8/0.8


