Circuit: * Z:\home\martin\bms\ltspice\bms_action.asc

Limiting rise time of source v12 to 1e-007
Limiting fall time of source v12 to 1e-007
Limiting rise time of source v11 to 1e-007
Limiting fall time of source v11 to 1e-007
Limiting rise time of source v8 to 1e-007
Limiting fall time of source v8 to 1e-007
Limiting rise time of source v5 to 3e-007
Limiting fall time of source v5 to 3e-007
Direct Newton iteration for .op point succeeded.
Heightened Def Con from 0.00164728 to 0.00164729
Heightened Def Con from 0.00178979 to 0.00178979

Date: Mon Jul 18 23:18:05 2016
Total elapsed time: 36.832 seconds.

tnom = 27
temp = 27
method = modified trap
totiter = 512102
traniter = 512097
tranpoints = 134067
accept = 97610
rejected = 36459
matrix size = 80
fillins = 154
solver = Normal
Thread vector: 52.3/23.7[2] 22.5/13.1[2] 4.5/5.9[1] 3.9/5.6[1]  2592/500
Matrix Compiler1: 17.12 KB object code size  14.1/12.0/[6.1]
Matrix Compiler2: 9.16 KB object code size  5.1/6.3/[3.8]


