Circuit: * Z:\home\martin\bms\ltspice\Draft2.asc

Limiting rise time of source v3 to 1e-007
Limiting fall time of source v3 to 1e-007
Limiting rise time of source v2 to 1e-007
Limiting fall time of source v2 to 1e-007
Direct Newton iteration for .op point succeeded.

Date: Tue Jul 19 22:00:04 2016
Total elapsed time: 2.085 seconds.

tnom = 27
temp = 27
method = modified trap
totiter = 55150
traniter = 55143
tranpoints = 15576
accept = 11449
rejected = 4127
matrix size = 31
fillins = 2
solver = Normal
Matrix Compiler1: 1.51 KB object code size  3.5/2.9/[2.4]
Matrix Compiler2: 2.22 KB object code size  2.5/4.0/[2.3]


